<?xml version="1.0" encoding="UTF-8"?>

<!-- generated on 2025-11-26T09:24:10.230969-05:00 by Eclipse SUMO netedit 1.25.0
-->

<additional xmlns:xsi="http://www.w3.org/2001/XMLSchema-instance" xsi:noNamespaceSchemaLocation="http://sumo.dlr.de/xsd/additional_file.xsd">
    <!-- MeanDataEdges -->
    <edgeData id="wizard_example" file="edgeData.xml" period="3600.00"/>
</additional>
